data_image0
_chemical_formula_structural       Fe4Li4O16P4
_chemical_formula_sum              "Fe4 Li4 O16 P4"
_cell_length_a       10.5688
_cell_length_b       6.29115
_cell_length_c       5.00609
_cell_angle_alpha    89.9986
_cell_angle_beta     90
_cell_angle_gamma    90.0003

_space_group_name_H-M_alt    "P 1"
_space_group_IT_number       1

loop_
  _space_group_symop_operation_xyz
  'x, y, z'

loop_
  _atom_site_type_symbol
  _atom_site_label
  _atom_site_symmetry_multiplicity
  _atom_site_fract_x
  _atom_site_fract_y
  _atom_site_fract_z
  _atom_site_occupancy
  Fe  Fe1       1.0  0.28619  0.25000  0.98561  1.0000
  Fe  Fe2       1.0  0.21381  0.75000  0.48560  1.0000
  Fe  Fe3       1.0  0.71381  0.75000  0.01439  1.0000
  Fe  Fe4       1.0  0.78619  0.25000  0.51440  1.0000
  Li  Li1       1.0  0.00000  0.00000  0.00000  1.0000
  Li  Li2       1.0  0.50000  0.00000  0.50000  1.0000
  Li  Li3       1.0  0.00000  0.50000  0.00000  1.0000
  Li  Li4       1.0  0.50000  0.50000  0.50000  1.0000
  O   O1        1.0  0.11328  0.25002  0.74939  1.0000
  O   O2        1.0  0.38672  0.75001  0.24937  1.0000
  O   O3        1.0  0.88672  0.74998  0.25061  1.0000
  O   O4        1.0  0.61328  0.24999  0.75063  1.0000
  O   O5        1.0  0.46909  0.24999  0.16037  1.0000
  O   O6        1.0  0.03091  0.75000  0.66036  1.0000
  O   O7        1.0  0.53091  0.75000  0.83963  1.0000
  O   O8        1.0  0.96909  0.25000  0.33964  1.0000
  O   O9        1.0  0.17764  0.05403  0.31347  1.0000
  O   O10       1.0  0.32236  0.94596  0.81347  1.0000
  O   O11       1.0  0.82236  0.55404  0.68652  1.0000
  O   O12       1.0  0.67763  0.44597  0.18653  1.0000
  O   O13       1.0  0.82236  0.94597  0.68653  1.0000
  O   O14       1.0  0.67764  0.05404  0.18653  1.0000
  O   O15       1.0  0.17764  0.44596  0.31348  1.0000
  O   O16       1.0  0.32237  0.55403  0.81347  1.0000
  P   P1        1.0  0.10800  0.25001  0.44176  1.0000
  P   P2        1.0  0.39200  0.75000  0.94175  1.0000
  P   P3        1.0  0.89200  0.74999  0.55824  1.0000
  P   P4        1.0  0.60800  0.25000  0.05825  1.0000
